@<TRIPOS>MOLECULE
Fragment 1
24   24    1
SMALL
USER_CHARGES


@<TRIPOS>ATOM
      1 C3         -0.5068    0.0396    3.8842 C.3       1 0HK         0.0625 
      2 C4         -0.5471   -1.4663    3.9603 C.3       1 0HK        -0.1200 
      3 C5         -1.0933   -1.9468    5.2963 C.3       1 0HK         0.2200 
      4 C6         -0.9080   -0.9615    6.4307 C.3       1 0HK        -0.1200 
      5 C7         -0.8846    0.4566    5.9383 C.3       1 0HK         0.0625 
      6 N2          0.0963    0.7228    4.9707 N.4       1 0HK         0.5100 
      7 C12         0.3390    2.1367    4.7063 C.3       1 0HK        -0.0575 
      8 C1          1.4010    0.2960    5.3633 C.3       1 0HK        -0.0575 
      9 H3         -0.0449    0.3515    2.9477 H         1 0HK         0.0600 
     10 H1          0.4578   -1.8638    3.8141 H         1 0HK         0.0600 
     11 H2         -1.1694   -1.8548    3.1541 H         1 0HK         0.0600 
     12 H5         -0.5788   -2.8708    5.5601 H         1 0HK         0.0300 
     13 H61         0.0246   -1.1793    6.9509 H         1 0HK         0.0600 
     14 H62        -1.7176   -1.0816    7.1511 H         1 0HK         0.0600 
     15 H7         -0.7679    1.1396    6.7802 H         1 0HK         0.0600 
     16 H121        0.8018    2.5970    5.5794 H         1 0HK         0.0600 
     17 H122        1.0041    2.2370    3.8484 H         1 0HK         0.0600 
     18 H123       -0.6073    2.6342    4.4934 H         1 0HK         0.0600 
     19 H11         1.7437    0.9008    6.2032 H         1 0HK         0.0600 
     20 H12         1.3663   -0.7524    5.6599 H         1 0HK         0.0600 
     21 H13         2.0905    0.4134    4.5271 H         1 0HK         0.0600 
     22 H5         -2.1570   -2.1573    5.1849 H         1 0HK         0.0000 
     23 H3         -1.5431    0.3751    3.8448 H         1 0HK         0.0000 
     24 H7         -1.8544    0.6605    5.4846 H         1 0HK         0.0000 
@<TRIPOS>BOND
     1    1    2 1    
     2    1    6 1    
     3    1    9 1    
     4    1   23 1    
     5    2    3 1    
     6    2   10 1    
     7    2   11 1    
     8    3    4 1    
     9    3   12 1    
    10    3   22 1    
    11    4    5 1    
    12    4   13 1    
    13    4   14 1    
    14    5    6 1    
    15    5   15 1    
    16    5   24 1    
    17    6    7 1    
    18    6    8 1    
    19    7   16 1    
    20    7   17 1    
    21    7   18 1    
    22    8   19 1    
    23    8   20 1    
    24    8   21 1    
@<TRIPOS>SUBSTRUCTURE
     1 0HK         1 GROUP             0 A     ****    0 ROOT    
