@<TRIPOS>MOLECULE
Fragment 3 v3
18   17    1
SMALL
USER_CHARGES


@<TRIPOS>ATOM
      1 C28        -2.9696   -3.3929    4.5977 C.2       1 0HK         0.5100 
      2 O29        -2.2221   -4.2867    4.2085 O.2       1 0HK        -0.4300 
      3 C31        -5.0989   -3.4645    5.8030 C.3       1 0HK        -0.1787 
      4 C32        -4.9507   -2.2681    3.6994 C.3       1 0HK        -0.1787 
      5 O11        -2.4734   -2.2239    5.2024 O.3       1 0HK        -0.3300 
      6 O33        -4.7325   -4.6548    3.7703 O.3       1 0HK        -0.6830 
      7 C5         -1.0933   -1.9468    5.2963 C.3       1 0HK         0.2200 
      8 C30        -4.4632   -3.4855    4.4437 C.3       1 0HK         0.4950 
      9 HO33       -5.6813   -4.7465    3.6540 H         1 0HK         0.4180 
     10 H5         -0.5788   -2.8708    5.5601 H         1 0HK         0.0300 
     11 H311       -6.1819   -3.5313    5.6992 H         1 0HK         0.0000 
     12 H312       -4.7375   -4.3111    6.3868 H         1 0HK         0.0000 
     13 H313       -4.8398   -2.5360    6.3116 H         1 0HK         0.0000 
     14 H321       -6.0328   -2.3231    3.5811 H         1 0HK         0.0000 
     15 H322       -4.6923   -1.3705    4.2612 H         1 0HK         0.0000 
     16 H323       -4.4798   -2.2294    2.7171 H         1 0HK         0.0000 
     17 H51        -0.9247   -1.2026    6.0745 H         1 0HK         0.0000 
     18 H52        -0.7284   -1.5905    4.3330 H         1 0HK         0.0000 
@<TRIPOS>BOND
     1    1    2 2    
     2    1    5 1    
     3    1    8 1    
     4    3    8 1    
     5    3   11 1    
     6    3   12 1    
     7    3   13 1    
     8    4    8 1    
     9    4   14 1    
    10    4   15 1    
    11    4   16 1    
    12    5    7 1    
    13    6    8 1    
    14    6    9 1    
    15    7   10 1    
    16    7   17 1    
    17    7   18 1    
@<TRIPOS>SUBSTRUCTURE
     1 0HK         1 GROUP             0 A     ****    0 ROOT    
