@<TRIPOS>MOLECULE
Fragment 2 v2
13   13    1
SMALL
USER_CHARGES


@<TRIPOS>ATOM
      1 O10        -2.4942    1.6492    4.2907 O.3       1 0HK        -0.3524 
      2 C3         -0.5068    0.0396    3.8842 C.3       1 0HK         0.0625 
      3 C7         -0.8846    0.4566    5.9383 C.3       1 0HK         0.0625 
      4 C8         -2.2554    0.6602    5.2922 C.3       1 0HK         0.1162 
      5 C9         -1.9993    0.3802    3.8703 C.3       1 0HK         0.1162 
      6 H3         -0.0449    0.3515    2.9477 H         1 0HK         0.0600 
      7 H7         -0.7679    1.1396    6.7802 H         1 0HK         0.0600 
      8 H8         -3.1188    0.1863    5.7601 H         1 0HK         0.0600 
      9 H9         -2.6784   -0.2922    3.3451 H         1 0HK         0.0600 
     10 H3         -0.3793   -1.0352    4.0134 H         1 0HK         0.0000 
     11 H7         -0.7903   -0.5728    6.2841 H         1 0HK         0.0000 
     12 H3         -0.0269    0.5606    4.7127 H         1 0HK         0.0000 
     13 H7         -0.1074    0.6598    5.2016 H         1 0HK         0.0000 
@<TRIPOS>BOND
     1    1    4 1    
     2    1    5 1    
     3    2    5 1    
     4    2    6 1    
     5    2   10 1    
     6    2   12 1    
     7    3    4 1    
     8    3    7 1    
     9    3   11 1    
    10    3   13 1    
    11    4    5 1    
    12    4    8 1    
    13    5    9 1    
@<TRIPOS>SUBSTRUCTURE
     1 0HK         1 GROUP             0 A     ****    0 ROOT    
