@<TRIPOS>MOLECULE
Fragment 5 v1
9   9    1
SMALL
USER_CHARGES


@<TRIPOS>ATOM
      1 C32        -4.9507   -2.2681    3.6994 C.2       1 0HK        -0.1787 
      2 C41        -5.2248   -1.0345    4.2358 C.2       1 0HK        -0.0738 
      3 C42        -5.6547   -0.0390    3.4267 C.2       1 0HK        -0.0738 
      4 C43        -5.8031   -0.2864    2.0837 C.2       1 0HK        -0.3255 
      5 S44        -5.3121   -2.0138    1.9703 S.3       1 0HK         0.0328 
      6 H41        -5.0969   -0.8649    5.2944 H         1 0HK         0.1211 
      7 H42        -5.8764    0.9349    3.8389 H         1 0HK         0.1211 
      8 H43        -6.1433    0.4988    1.4255 H         1 0HK         0.2618 
      9 H32        -4.6090   -3.0702    4.3367 H         1 0HK         0.0000 
@<TRIPOS>BOND
     1    1    2 2    
     2    1    5 1    
     3    1    9 1    
     4    2    3 1    
     5    2    6 1    
     6    3    4 2    
     7    3    7 1    
     8    4    5 1    
     9    4    8 1    
@<TRIPOS>SUBSTRUCTURE
     1 0HK         1 GROUP             0 A     ****    0 ROOT    
