@<TRIPOS>MOLECULE
Ligand only
48   52    1
SMALL
USER_CHARGES


@<TRIPOS>ATOM
      1 C28        -2.9696   -3.3929    4.5977 C.2       1 0HK         0.5100 
      2 O29        -2.2221   -4.2867    4.2085 O.2       1 0HK        -0.4300 
      3 C31        -5.0989   -3.4645    5.8030 C.2       1 0HK        -0.1787 
      4 C32        -4.9507   -2.2681    3.6994 C.2       1 0HK        -0.1787 
      5 C34        -4.5075   -3.5491    7.0423 C.2       1 0HK        -0.0738 
      6 C35        -5.2891   -3.5085    8.1588 C.2       1 0HK        -0.0738 
      7 C36        -6.6464   -3.3812    8.0090 C.2       1 0HK        -0.3255 
      8 C41        -5.2248   -1.0345    4.2358 C.2       1 0HK        -0.0738 
      9 C42        -5.6547   -0.0390    3.4267 C.2       1 0HK        -0.0738 
     10 C43        -5.8031   -0.2864    2.0837 C.2       1 0HK        -0.3255 
     11 O10        -2.4942    1.6492    4.2907 O.3       1 0HK        -0.3524 
     12 O11        -2.4734   -2.2239    5.2024 O.3       1 0HK        -0.3300 
     13 O33        -4.7325   -4.6548    3.7703 O.3       1 0HK        -0.6830 
     14 S37        -6.8165   -3.3181    6.2280 S.3       1 0HK         0.0328 
     15 S44        -5.3121   -2.0138    1.9703 S.3       1 0HK         0.0328 
     16 C3         -0.5068    0.0396    3.8842 C.3       1 0HK         0.0625 
     17 C4         -0.5471   -1.4663    3.9603 C.3       1 0HK        -0.1200 
     18 C5         -1.0933   -1.9468    5.2963 C.3       1 0HK         0.2200 
     19 C6         -0.9080   -0.9615    6.4307 C.3       1 0HK        -0.1200 
     20 C7         -0.8846    0.4566    5.9383 C.3       1 0HK         0.0625 
     21 C8         -2.2554    0.6602    5.2922 C.3       1 0HK         0.1162 
     22 C9         -1.9993    0.3802    3.8703 C.3       1 0HK         0.1162 
     23 C30        -4.4632   -3.4855    4.4437 C.3       1 0HK         0.4950 
     24 N2          0.0963    0.7228    4.9707 N.4       1 0HK         0.5100 
     25 C12         0.3390    2.1367    4.7063 C.3       1 0HK        -0.0575 
     26 C1          1.4010    0.2960    5.3633 C.3       1 0HK        -0.0575 
     27 H34        -3.4346   -3.6465    7.1230 H         1 0HK         0.1211 
     28 H35        -4.8366   -3.5762    9.1366 H         1 0HK         0.1211 
     29 H36        -7.2857   -3.3465    8.8791 H         1 0HK         0.2618 
     30 H41        -5.0969   -0.8649    5.2944 H         1 0HK         0.1211 
     31 H42        -5.8764    0.9349    3.8389 H         1 0HK         0.1211 
     32 H43        -6.1433    0.4988    1.4255 H         1 0HK         0.2618 
     33 HO33       -5.6813   -4.7465    3.6540 H         1 0HK         0.4180 
     34 H3         -0.0449    0.3515    2.9477 H         1 0HK         0.0600 
     35 H1          0.4578   -1.8638    3.8141 H         1 0HK         0.0600 
     36 H2         -1.1694   -1.8548    3.1541 H         1 0HK         0.0600 
     37 H5         -0.5788   -2.8708    5.5601 H         1 0HK         0.0300 
     38 H61         0.0246   -1.1793    6.9509 H         1 0HK         0.0600 
     39 H62        -1.7176   -1.0816    7.1511 H         1 0HK         0.0600 
     40 H7         -0.7679    1.1396    6.7802 H         1 0HK         0.0600 
     41 H8         -3.1188    0.1863    5.7601 H         1 0HK         0.0600 
     42 H9         -2.6784   -0.2922    3.3451 H         1 0HK         0.0600 
     43 H121        0.8018    2.5970    5.5794 H         1 0HK         0.0600 
     44 H122        1.0041    2.2370    3.8484 H         1 0HK         0.0600 
     45 H123       -0.6073    2.6342    4.4934 H         1 0HK         0.0600 
     46 H11         1.7437    0.9008    6.2032 H         1 0HK         0.0600 
     47 H12         1.3663   -0.7524    5.6599 H         1 0HK         0.0600 
     48 H13         2.0905    0.4134    4.5271 H         1 0HK         0.0600 
@<TRIPOS>BOND
     1    1    2 2    
     2    1   12 1    
     3    1   23 1    
     4    3    5 2    
     5    3   14 1    
     6    3   23 1    
     7    4    8 2    
     8    4   15 1    
     9    4   23 1    
    10    5    6 1    
    11    5   27 1    
    12    6    7 2    
    13    6   28 1    
    14    7   14 1    
    15    7   29 1    
    16    8    9 1    
    17    8   30 1    
    18    9   10 2    
    19    9   31 1    
    20   10   15 1    
    21   10   32 1    
    22   11   21 1    
    23   11   22 1    
    24   12   18 1    
    25   13   23 1    
    26   13   33 1    
    27   16   17 1    
    28   16   22 1    
    29   16   24 1    
    30   16   34 1    
    31   17   18 1    
    32   17   35 1    
    33   17   36 1    
    34   18   19 1    
    35   18   37 1    
    36   19   20 1    
    37   19   38 1    
    38   19   39 1    
    39   20   21 1    
    40   20   24 1    
    41   20   40 1    
    42   21   22 1    
    43   21   41 1    
    44   22   42 1    
    45   24   25 1    
    46   24   26 1    
    47   25   43 1    
    48   25   44 1    
    49   25   45 1    
    50   26   46 1    
    51   26   47 1    
    52   26   48 1    
@<TRIPOS>SUBSTRUCTURE
     1 0HK         1 GROUP             0 A     ****    0 ROOT    
