@<TRIPOS>MOLECULE
Fragment 4 v3
9   9    1
SMALL
USER_CHARGES


@<TRIPOS>ATOM
      1 C31        -5.0989   -3.4645    5.8030 C.2       1 0HK        -0.1787 
      2 C34        -4.5075   -3.5491    7.0423 C.2       1 0HK        -0.0738 
      3 C35        -5.2891   -3.5085    8.1588 C.2       1 0HK        -0.0738 
      4 C36        -6.6464   -3.3812    8.0090 C.2       1 0HK        -0.3255 
      5 S37        -6.8165   -3.3181    6.2280 S.3       1 0HK         0.0328 
      6 H34        -3.4346   -3.6465    7.1230 H         1 0HK         0.1211 
      7 H35        -4.8366   -3.5762    9.1366 H         1 0HK         0.1211 
      8 H36        -7.2857   -3.3465    8.8791 H         1 0HK         0.2618 
      9 H31        -4.4909   -3.4981    4.9110 H         1 0HK         0.0000 
@<TRIPOS>BOND
     1    1    2 2    
     2    1    5 1    
     3    1    9 1    
     4    2    3 1    
     5    2    6 1    
     6    3    4 2    
     7    3    7 1    
     8    4    5 1    
     9    4    8 1    
@<TRIPOS>SUBSTRUCTURE
     1 0HK         1 GROUP             0 A     ****    0 ROOT    
